
 OpenBabel02041517113D

 57 60  0  0  0  0  0  0  0  0999 V2000
    7.1236   -0.9910    7.2938 C   0  0  0  0  0  0  0  0  0  0  0  0
    7.5923   -1.4384    5.9006 C   0  0  2  0  0  0  0  0  0  0  0  0
    8.1639   -0.2480    5.1213 C   0  0  0  0  0  0  0  0  0  0  0  0
    7.9470   -0.7742    3.7275 C   0  0  2  0  0  0  0  0  0  0  0  0
    8.5260    0.0013    2.5538 C   0  0  1  0  0  0  0  0  0  0  0  0
   10.0856   -0.0239    2.6490 C   0  0  0  0  0  0  0  0  0  0  0  0
   10.8356   -0.7965    1.5511 C   0  0  0  0  0  0  0  0  0  0  0  0
   10.2058   -0.7955    0.1766 C   0  0  0  0  0  0  0  0  0  0  0  0
   10.6675   -1.6635   -0.7495 C   0  0  0  0  0  0  0  0  0  0  0  0
   10.0037   -1.8318   -2.0509 C   0  0  0  0  0  0  0  0  0  0  0  0
   10.3728   -2.7027   -2.8583 O   0  0  0  0  0  0  0  0  0  0  0  0
    8.8809   -0.9441   -2.3644 C   0  0  0  0  0  0  0  0  0  0  0  0
    8.3188   -0.2063   -1.3947 C   0  0  0  0  0  0  0  0  0  0  0  0
    8.8767   -0.0372    0.0115 C   0  0  1  0  0  0  0  0  0  0  0  0
    8.0202   -0.6038    1.2127 C   0  0  2  0  0  0  0  0  0  0  0  0
    6.4776   -0.5871    1.2012 C   0  0  2  0  0  0  0  0  0  0  0  0
    5.9558   -1.5467    2.3169 C   0  0  0  0  0  0  0  0  0  0  0  0
    6.4523   -1.1882    3.7593 C   0  0  1  0  0  0  0  0  0  0  0  0
    6.4285   -2.1647    5.0623 C   0  0  1  0  0  0  0  0  0  0  0  0
    5.9441   -1.0708   -0.0328 O   0  0  0  0  0  0  0  0  0  0  0  0
    8.3073   -1.9673    1.2648 F   0  0  0  0  0  0  0  0  0  0  0  0
    9.1203    1.4888    0.0701 C   0  0  0  0  0  0  0  0  0  0  0  0
    6.4436   -3.4624    4.1409 C   0  0  0  0  0  0  0  0  0  0  0  0
    5.4788   -0.0212    4.1613 C   0  0  0  0  0  0  0  0  0  0  0  0
    5.3535   -3.9780    3.8059 O   0  0  0  0  0  0  0  0  0  0  0  0
    7.7448   -4.1521    3.6615 C   0  0  0  0  0  0  0  0  0  0  0  0
    7.5029   -4.9357    2.4907 O   0  0  0  0  0  0  0  0  0  0  0  0
    6.5743   -3.3603    5.8753 O   0  0  0  0  0  0  0  0  0  0  0  0
    6.5819   -0.0398    7.2637 H   0  0  0  0  0  0  0  0  0  0  0  0
    7.9879   -0.8526    7.9527 H   0  0  0  0  0  0  0  0  0  0  0  0
    6.4668   -1.7293    7.7635 H   0  0  0  0  0  0  0  0  0  0  0  0
    8.4295   -2.1390    6.0461 H   0  0  0  0  0  0  0  0  0  0  0  0
    9.2104   -0.0698    5.3805 H   0  0  0  0  0  0  0  0  0  0  0  0
    7.6371    0.6971    5.2996 H   0  0  0  0  0  0  0  0  0  0  0  0
    8.5404   -1.6826    3.6924 H   0  0  0  0  0  0  0  0  0  0  0  0
    8.1905    1.0437    2.6318 H   0  0  0  0  0  0  0  0  0  0  0  0
   10.4524    1.0085    2.6714 H   0  0  0  0  0  0  0  0  0  0  0  0
   10.4218   -0.4348    3.6088 H   0  0  0  0  0  0  0  0  0  0  0  0
   11.8534   -0.3953    1.4792 H   0  0  0  0  0  0  0  0  0  0  0  0
   10.9325   -1.8387    1.8894 H   0  0  0  0  0  0  0  0  0  0  0  0
   11.5062   -2.3259   -0.5642 H   0  0  0  0  0  0  0  0  0  0  0  0
    8.5287   -0.9314   -3.3883 H   0  0  0  0  0  0  0  0  0  0  0  0
    7.4652    0.4138   -1.6651 H   0  0  0  0  0  0  0  0  0  0  0  0
    6.0943    0.4283    1.3368 H   0  0  0  0  0  0  0  0  0  0  0  0
    4.8578   -1.5776    2.2756 H   0  0  0  0  0  0  0  0  0  0  0  0
    6.2504   -2.5524    2.0075 H   0  0  0  0  0  0  0  0  0  0  0  0
    6.2997   -1.9730   -0.1634 H   0  0  0  0  0  0  0  0  0  0  0  0
    9.6721    1.8279    0.9458 H   0  0  0  0  0  0  0  0  0  0  0  0
    8.1728    2.0389    0.0526 H   0  0  0  0  0  0  0  0  0  0  0  0
    9.7190    1.8218   -0.7889 H   0  0  0  0  0  0  0  0  0  0  0  0
    4.4343   -0.3171    3.9948 H   0  0  0  0  0  0  0  0  0  0  0  0
    5.6684    0.8878    3.5828 H   0  0  0  0  0  0  0  0  0  0  0  0
    5.5228    0.2449    5.2210 H   0  0  0  0  0  0  0  0  0  0  0  0
    8.1181   -4.8197    4.4401 H   0  0  0  0  0  0  0  0  0  0  0  0
    8.5344   -3.4651    3.3911 H   0  0  0  0  0  0  0  0  0  0  0  0
    6.6090   -5.3134    2.6015 H   0  0  0  0  0  0  0  0  0  0  0  0
    5.7193   -3.5515    6.3050 H   0  0  0  0  0  0  0  0  0  0  0  0
  1 29  1  0  0  0  0
  1 30  1  0  0  0  0
  1 31  1  0  0  0  0
  2  1  1  0  0  0  0
  2  3  1  0  0  0  0
  2 32  1  1  0  0  0
  3  4  1  0  0  0  0
  3 33  1  0  0  0  0
  3 34  1  0  0  0  0
  4  5  1  0  0  0  0
  4 35  1  6  0  0  0
  5  6  1  0  0  0  0
  5 36  1  1  0  0  0
  6  7  1  0  0  0  0
  6 37  1  0  0  0  0
  6 38  1  0  0  0  0
  7  8  1  0  0  0  0
  7 39  1  0  0  0  0
  7 40  1  0  0  0  0
  8  9  2  0  0  0  0
  9 10  1  0  0  0  0
  9 41  1  0  0  0  0
 10 12  1  0  0  0  0
 10 11  2  0  0  0  0
 12 13  2  0  0  0  0
 12 42  1  0  0  0  0
 13 14  1  0  0  0  0
 13 43  1  0  0  0  0
 14  8  1  0  0  0  0
 14 15  1  0  0  0  0
 14 22  1  1  0  0  0
 15  5  1  0  0  0  0
 15 16  1  0  0  0  0
 15 21  1  1  0  0  0
 16 17  1  0  0  0  0
 16 20  1  0  0  0  0
 16 44  1  1  0  0  0
 17 18  1  0  0  0  0
 17 45  1  0  0  0  0
 17 46  1  0  0  0  0
 18  4  1  0  0  0  0
 18 24  1  1  0  0  0
 18 19  1  0  0  0  0
 19  2  1  0  0  0  0
 19 28  1  1  0  0  0
 19 23  1  0  0  0  0
 20 47  1  0  0  0  0
 22 48  1  0  0  0  0
 22 49  1  0  0  0  0
 22 50  1  0  0  0  0
 23 26  1  0  0  0  0
 23 25  2  0  0  0  0
 24 51  1  0  0  0  0
 24 52  1  0  0  0  0
 24 53  1  0  0  0  0
 26 27  1  0  0  0  0
 26 54  1  0  0  0  0
 26 55  1  0  0  0  0
 27 56  1  0  0  0  0
 28 57  1  0  0  0  0
M  END
